<?xml version="1.0" encoding="UTF-8"?>
<configuration>
    <input>
        <net-file   value="merging.net.xml"/>
        <route-files value="case_study_1.rou.xml"/>
    </input>
    <time>
        <begin value="0"/>
        <end   value="120"/>
        <step-length value="0.1"/>
    </time>
    <processing>
        <collision.action value="warn"/>
    </processing>
</configuration>